     576
CELL:    40.774416   -10.856442    -0.660972   -10.844141    40.455698    -1.249640    -0.192479    -0.276851     9.441033
 H  13.261823081  5.060940164  3.794358752
 H  26.856224855  16.796608987  1.479563823
 H  29.025560320 -1.959472296  3.802623849
 H  17.808962839  24.391899789  2.409339692
 H  2.473575001  14.365179261  6.092832917
 H -0.508545231  32.573607603  4.715706647
 H  16.758208519  23.960640037  3.772198746
 H  3.553765801  13.038613210  5.578655624
 H -1.633400659  31.427617346  3.958156783
 H  12.671110766  3.381958133  3.669264986
 H  28.017640535  15.515908167  1.079806561
 H  29.944225494 -2.728303348  5.080619240
 H  11.780469281  29.522428479  2.988707016
 H  10.085973530  14.642592697  4.839393949
 H -2.495483500  24.936737513  7.555043736
 H  18.436435782 -0.662702861  3.586179247
 H  20.314478848  14.141585841  3.933920218
 H  32.695584774  4.686215563  7.412750745
 H  11.056786420  31.793391544  3.617985888
 H  12.324262500  13.823104033  4.156173719
 H -4.060650471  23.063111887  7.420853459
 H  19.241654997 -2.867281801  4.335092236
 H  17.946223235  14.573155184  3.507224816
 H  34.440505698  6.383571689  7.152204089
 H  3.117175815  33.976033007  5.564012693
 H  16.776931785  20.728153593  2.856599660
 H -0.773302556  14.713367168  6.372950966
 H  27.313426063 -5.224808386  6.412319164
 H  12.040698214  7.982881019  3.243797609
 H  30.572677613  14.034041340  5.559388855
 H  4.637417463  35.733437454  4.779292731
 H  17.579958324  18.430389577  3.132630194
 H -3.092707930  15.399565250  6.940626689
 H  25.519305450 -6.863618700  5.924218326
 H  11.609919008  10.416382677  3.343227941
 H  32.961031984  13.715920109  6.120904127
 H  15.591037122  27.045931014  2.744108805
 H  5.435835695  13.637077776  4.462434366
 H -1.938682395  29.402078117  5.029109056
 H  14.339014533  1.900542126  3.270005603
 H  24.777991373  15.927786567  2.051330587
 H  31.383920872  0.353337949  4.982436690
 H  12.413836367  28.061386478  1.154783415
 H  7.506067098  15.256598553  1.865698472
 H -0.998437179  26.324888647  6.918514673
 H  17.366560206  0.411520173  1.666835385
 H  22.325413821  13.558730029  3.561691058
 H  30.996810748  3.503956934  6.945672332
 H  16.679051785  22.523159153  1.818999665
 H  1.374302071  17.251954862  3.333068039
 H  1.808274618  32.348276490  4.680039798
 H  15.167985051  6.529324470  0.306798936
 H  29.260758530  14.668458518  3.368223490
 H  26.260997985 -1.143044551  6.520366767
 H  30.765700083 -1.592882703  3.966991152
 H  12.275118403  4.610461823  2.424427967
 H  28.234233526  16.482470076  2.553623037
 H -0.016778961  31.665159117  3.275887495
 H  17.240936385  25.647350293  3.527239763
 H  2.007640640  13.368234812  4.734734008
 H  18.633205915  2.248309556  0.696110257
 H  23.435085242  11.596326577  4.134850174
 H  27.787954720  2.684979542  8.498213037
 H  11.292468825  26.083113469  0.418162276
 H  5.234373567  18.090370097  1.167007477
 H  2.323228508  27.428631863  7.975409865
 H  11.880246951  24.914045350 -0.782415333
 H  6.355227867  16.782506158  0.744625585
 H  1.270772069  26.239423560  7.183073141
 H  17.803425611  2.872099586  8.744141675
 H  23.476092338  12.681379765  5.536171723
 H  28.733947235  3.775733249  7.463004299
 H  8.250470122  34.209644071  1.363978224
 H  17.296406643  13.612959693  1.576439479
 H  33.761275032  7.479580168  5.255314753
 H  22.006588347 -5.104471922  6.474802070
 H  12.556261602  14.962923098  1.862640138
 H -3.556659999  21.851525367  5.612276148
 H  10.662308911  33.598377227  1.327587688
 H  15.601161742  11.910198038  1.823121473
 H  33.097235347  9.793028203  5.339492121
 H  19.579684176 -4.552994085  6.533320463
 H  14.266467990  16.665957963  1.850237479
 H -2.873850478  19.537774049  5.785923464
 H  14.705945406  33.409113688  1.992348832
 H  10.546965799  11.783115358  0.810877123
 H -6.315395987  25.136078489  4.391670208
 H  4.423654503  35.985075586  2.580384883
 H  18.996664477  17.628341795  0.657741266
 H  36.056268246  4.235492831  3.790141729
 H  15.452909547  31.118914573  1.415722406
 H  8.316781716  12.625956759  1.476806720
 H -4.758994472  27.052401339  4.571734904
 H  14.447628464 -2.224053451  3.250159218
 H  21.395224740  17.214768172  1.122990949
 H  34.307884541  2.493801632  4.077980610
 H  7.385666347  32.721950242  3.379758356
 H  15.360210502  17.209391229 -0.347434410
 H -2.970556314  18.330899133  3.791638356
 H  23.237605610 -3.776709535  3.971688734
 H  14.520702442  11.022152084  0.223691753
 H  33.292889723  10.748633530  3.018625406
 H  5.881498247  30.965500695  4.254299066
 H  14.543867193  19.538029192 -0.629423353
 H -0.681516004  17.658112545  3.231834914
 H  24.992476841 -2.127679377  4.534759286
 H  14.975004695  8.626690457  0.162008523
 H  30.882859280  11.008935847  2.514116394
 H  13.517535967  23.467906338  0.036260959
 H  3.307674331  17.536829474  2.326702230
 H  2.687618937  29.372475362  6.766903359
 H  16.510799883  4.797979298 -0.075198770
 H  26.804818708  12.226201749  4.622270914
 H  27.164466262  0.700726076  7.510809149
 H  29.718554893  3.169026449 -0.658875650
 H  17.526253258  1.457621036 -0.437907860
 H  24.740035078  11.457321845  5.331910321
 H  0.863253491  27.449540593 -0.874086990
 H  12.315388199  26.626571484 -0.919949034
 H  6.701984306  17.826952442  2.133383025
 H  4.947400584  12.760288144  1.416382442
 H  16.677970479  26.575802440  7.839756280
 H -2.763346611  28.799469531 -0.876323113
 H  23.967489045  16.825106049  7.289429738
 H  13.515268550  2.511450646 -0.231412904
 H  31.646232094 -0.294999479  0.807519020
 H  23.924695692  15.839366389  5.847702876
 H  12.347269126  1.753389327  7.840855200
 H  30.886796672  0.428457323 -0.593425025
 H  4.547629439  11.901151490 -0.081411967
 H  15.570607551  27.838353887 -0.908208927
 H -2.477226452  30.542592496 -0.615387656
 H  29.663990839  11.369497904  7.523962517
 H  14.094990305  9.368672012  4.963543916
 H  23.987341047 -1.855661052 -0.371485578
 H -1.632734188  17.278535034  8.434179001
 H  14.187651971  20.438711933  4.328950163
 H  1.377953121  34.057873517 -1.293121577
 H  31.982701721  10.575324867  7.872306324
 H  13.617961595  11.763204419  5.080203930
 H  21.894337048 -3.615113811  8.515092739
 H -3.745647262  18.229239195 -0.557895323
 H  14.613402291  18.032525199  4.570865816
 H  2.758285917  35.551354541  7.392980008
 H  33.528578008  2.255774028 -0.289397733
 H  20.812986575  17.025764882  5.413126008
 H  16.676323712 -1.059009708  6.608262251
 H -5.053860897  26.598278729 -0.679879592
 H  7.587147912  12.792907735  6.736672968
 H  13.345941269  31.146814901  5.771368844
 H  35.265004463  4.001021925 -0.571176985
 H  18.451231485  17.654720111  4.983318284
 H  17.293445158 -3.300191187  7.383492961
 H  34.107615871  13.854303624 -1.398295658
 H  9.858080170  12.052949706  6.124063642
 H  12.723683914  33.473976854  6.356329213
 H  26.779182895  14.820034430  7.498881388
 H  12.742744338  5.213493328  7.669088830
 H  28.402942281 -1.614981656  0.302824126
 H  1.777413126  13.914678724  0.640697138
 H  15.929765510  24.650223202  6.777743375
 H -0.356909099  31.100487734 -0.082741618
 H  27.818031511  11.900906097 -0.251570585
 H  14.920093543  7.482350129  5.660800735
 H  25.086794972 -1.020053833  1.843873917
 H  0.619637755  17.226742673 -0.653484539
 H  13.517129904  22.411432037  5.040596976
 H  3.086138989  30.784687958  1.284798988
 H  21.403501539  13.697547316  8.325261299
 H  16.141293978  1.006501652  6.380673794
 H  30.417094839  2.851226193  2.935070068
 H  6.151072816  12.883809922  8.673967549
 H  14.154878480  29.137888588  6.983295985
 H -1.563315175  26.110937995  2.045480834
 H -3.396185569  29.556125439  0.566721739
 H  3.286369614  12.207779948  1.130245463
 H  16.247563733  28.131003057  7.098639243
 H  30.584147857 -1.292574909 -0.236778410
 H  25.503786680  16.394370239  6.471909817
 H  12.011036231  3.316387564  8.652385711
 H  1.825221672  17.367426650  6.855589623
 H  11.557357753  23.490493865  4.667247286
 H  2.517529183  27.677171227  3.191013351
 H  25.946489726  11.696376923  1.486245505
 H  16.981066226  6.349587213  5.238434486
 H  26.167588423  1.745621639  4.101819603
 H  25.906825312  10.658399327  0.050420674
 H  15.811956475  6.068736820  3.935631727
 H  25.718617158  0.032713875  4.104278812
 H  3.504076710  17.892720890  7.086005320
 H  12.534486957  23.987378546  3.273905909
 H  2.848003445  29.412940193  3.289363918
 H -3.757248679  19.341150190  1.529017936
 H  13.630585043  17.351030681  6.520767824
 H  6.371263821  33.688036849  6.843496442
 H  32.264609788  9.703224521  0.339153622
 H  14.826943185  12.567140437  6.818983493
 H  20.778867283 -3.814605104  1.124067521
 H -4.344609935  21.658326028  1.221499598
 H  11.873108343  15.704829771  6.703220004
 H  8.742743305  33.045251489  6.742718206
 H  32.881742252  7.369414677  0.408531853
 H  16.557007869  14.187752239  6.383542833
 H  18.407819567 -3.138756199  1.154130045
 H  32.757718265  13.888085365  1.425047017
 H  11.138185627  11.115941974  8.534445853
 H  13.133020210  33.902951525 -0.015768218
 H -4.058495925  15.189952991  2.478282493
 H  17.568379951  18.843592471  7.597426374
 H  5.958810944  34.219201782  0.582519065
 H  30.491631950  14.775066186  0.964102195
 H  11.575062311  8.681686143  8.381967397
 H  25.914541918 -5.080443053  1.717341388
 H -1.733572760  14.480270491  1.990727359
 H  17.184030768  21.275580186  7.302102042
 H  4.398154096  32.494061557  1.347852388
 H  33.378578442  6.345039989  2.511743579
 H  17.224755343  15.285713694  8.362977415
 H  14.412247212 -2.869280539  0.955270074
 H -4.883741990  23.096425925  2.828211006
 H  11.730869801  15.154631784 -0.537733088
 H  9.809337806  32.269120954 -0.496139112
 H  31.651154289  4.621587278  2.780728492
 H  19.742498661  14.906060610 -0.681808216
 H  13.820045313 -0.574866635  0.206145883
 H -3.252844458  24.930172048  2.854014516
 H  9.450222937  15.949226593  0.024872640
 H  10.400749094  29.943653835 -1.126284583
 H  23.073126218  12.655112205 -0.168482031
 H  16.496535374  2.968120210  5.399205915
 H  28.311477553  2.215570390  3.405111846
 H  5.014656593  16.237793988  7.648872500
 H  11.880166067  26.909907648  5.073682751
 H  0.394881991  27.026308022  2.583359809
 H  3.404062112  28.489759150  1.884144187
 H  2.280307774  18.258217876  8.319385758
 H  11.229810578  25.037264630  3.863442741
 H  25.083465090  1.105683510  2.847667066
 H  24.396216469  11.080134146  0.881403294
 H  17.085375175  4.877248673  4.248023412
 C  13.662900148  30.156254662  2.125536961
 C  9.050699002  13.713699445  3.193122923
 C -3.469540118  26.120716499  6.010872414
 C  16.375944300 -1.279811867  3.353618305
 C  21.047247470  15.605805830  2.500918761
 C  33.333730702  3.481710763  5.716322480
 C  12.405788214  30.377448008  2.726176612
 C  10.194965791  14.021742126  3.951472003
 C -3.300770175  24.975689301  6.820477636
 C  17.736213119 -1.498258756  3.644422853
 C  20.042945880  14.873189134  3.171938802
 C  33.401874870  4.591582517  6.588613803
 C  12.000967685  31.655597827  3.091717274
 C  11.446013931  13.552154832  3.569826330
 C -4.184795897  23.908834269  6.746037813
 C  18.191060972 -2.742474174  4.075629559
 C  18.697666991  15.115476008  2.935042203
 C  34.393335374  5.552728030  6.447917623
 C  4.027465387  33.697560175  5.035008028
 C  16.500725508  19.980002591  2.113806409
 C -1.262827269  15.515696422  5.820105872
 C  26.407422239 -4.909274883  5.894618082
 C  12.583623355  8.662873723  2.586269802
 C  31.175149885  13.326780729  4.987456258
 C  4.885273836  34.690400292  4.589188982
 C  16.942263078  18.678829510  2.285177868
 C -2.554819799  15.903136256  6.139029808
 C  25.400768310 -5.823105546  5.621724565
 C  12.346436249  10.026830418  2.642928891
 C  32.513881794  13.134591665  5.315026161
 C  15.154907989  26.246436869  2.143566951
 C  4.944333393  14.496387522  4.001852803
 C -0.919755552  29.423946227  5.418053510
 C  14.812336086  2.563427130  2.543916962
 C  25.245672925  15.124403733  2.622216124
 C  30.451128049  0.399493289  5.546403113
 C  15.732134536  24.982813792  2.152989762
 C  3.606803855  14.749580731  4.292131752
 C -0.076598325  30.478707781  5.093609619
 C  14.286223487  3.833606127  2.339415964
 C  26.631332399  15.019673180  2.665004154
 C  29.530967802 -0.636071841  5.431311268
 C  15.113819960  23.965309461  1.377548547
 C  3.005539728  15.880252509  3.664180911
 C  1.261469914  30.428795678  5.566893997
 C  14.948297555  4.675785704  1.397431009
 C  27.191514056  13.936956146  3.391417833
 C  28.312931881 -0.516334669  6.159484314
 C  13.999915091  26.551036132  1.401509572
 C  5.706685506  15.278729450  3.117404504
 C -0.507284767  28.332185484  6.205126595
 C  15.941085822  2.070958762  1.863336171
 C  24.391737486  14.218729475  3.278791409
 C  30.241600512  1.539691423  6.345283270
 C  13.461779495  27.908725775  1.468016818
 C  7.086531646  14.895119698  2.820172278
 C -1.413633732  27.206734602  6.402086020
 C  16.444161965  0.737917890  2.178120759
 C  22.945231819  14.385757387  3.176142262
 C  31.250460747  2.595024093  6.375077711
 C  15.674651546  22.621251228  1.375191775
 C  1.629880115  16.315717177  3.866674491
 C  2.220423840  31.445000310  5.160186589
 C  14.612850328  6.071848985  1.148098926
 C  28.638788642  13.765130939  3.497730088
 C  27.233384561 -1.497918348  6.122125374
 C  13.057308785  4.237164058  3.099553472
 C  27.481590247  16.004159218  1.908551939
 C  29.838912154 -1.789116468  4.521377609
 C  16.947620604  24.727673527  3.006419047
 C  2.876780345  13.827570892  5.224876543
 C -0.580800700  31.595108509  4.216880849
 C  8.886746594  34.440594282  2.217740914
 C  16.260255209  13.930452167  1.674522859
 C  34.541160172  8.235765201  5.225247363
 C  21.364860746 -5.357902371  5.631556433
 C  13.595907532  14.646841440  1.824394908
 C -4.330196248  21.094465176  5.720420763
 C  10.237043953  34.105631859  2.192412950
 C  15.280889339  12.948182297  1.788330106
 C  34.157862526  9.566602994  5.259659077
 C  20.010186874 -5.040437511  5.659122966
 C  14.577537466  15.624533384  1.811779213
 C -3.938470132  19.761359520  5.798156821
 C  11.066096815  34.422916199  3.278782808
 C  13.912639348  13.273913914  1.855129985
 C -5.684760419  21.468932168  5.784551056
 C  8.337376808  35.081840988  3.332451648
 C  15.943198297  15.298963132  1.722670495
 C -4.878306070  18.714730717  5.836259092
 C  6.082524428  34.367230543  3.918716159
 C  16.532724798  17.659215832  1.413133756
 C -3.176451452  16.956773979  5.446712569
 C  24.252508267 -5.437082564  4.906309178
 C  13.086755333  10.919590245  1.844516293
 C  33.291220635  12.193479084  4.627579956
 C  12.821348593  32.771431693  2.840541391
 C  11.592341164  12.757679966  2.422830427
 C -5.265202163  23.918605039  5.837858347
 C  17.311519188 -3.837868626  4.187948659
 C  18.287877304  16.084007914  1.994192797
 C  35.336599293  5.468043126  5.405853775
 C  14.057491740  32.558937314  2.199903214
 C  10.451485325  12.419034894  1.688924055
 C -5.476819693  25.088082998  5.083906240
 C  15.962384603 -3.634014819  3.827918795
 C  19.286101831  16.858416812  1.370744639
 C  35.312118863  4.333719447  4.578106910
 C  14.478129703  31.278665244  1.877606460
 C  9.197728773  12.891567258  2.062220829
 C -4.608770691  26.162876727  5.184102952
 C  15.502993094 -2.377594030  3.475063224
 C  20.626875090  16.630537765  1.630101341
 C  34.342587099  3.358158072  4.741172958
 C  6.438530914  33.005961657  3.835432345
 C  15.682429113  17.986883503  0.345573182
 C -2.474866911  17.566588161  4.389453103
 C  24.110654933 -4.087521302  4.545773604
 C  14.009158335  10.369539294  0.928679250
 C  32.695042119  11.460273484  3.587812911
 C  5.597107093  32.015874442  4.328863172
 C  15.217934491  19.287358720  0.189670564
 C -1.176061489  17.184908452  4.080609305
 C  25.094489836 -3.160620925  4.870714380
 C  14.251585898  9.002982783  0.885937315
 C  31.344336439  11.601128945  3.304569722
 C  4.343572928  32.331767549  4.883102478
 C  15.618208949  20.316750653  1.064862942
 C -0.527487613  16.162486535  4.806825086
 C  26.279725060 -3.556221651  5.522683855
 C  13.564782620  8.112806881  1.739229860
 C  30.557667049  12.543943544  3.993193913
 C  13.957411391  24.268516796  0.633651616
 C  3.784100343  16.670827065  2.794271702
 C  1.662492926  29.362476299  6.392534645
 C  16.045454006  4.157507483  0.679217968
 C  26.340849210  13.032312508  4.050878221
 C  28.101028361  0.629667984  6.950725592
 C  13.380925502  25.535813832  0.626419632
 C  5.116608493  16.403720130  2.493999701
 C  0.810616875  28.318851982  6.735920089
 C  16.563742919  2.881951801  0.882830843
 C  24.954241429  13.147275386  4.020912130
 C  29.033665027  1.655405628  7.079948715
 C  17.740457835  2.408042135  0.071349957
 C  24.105437525  12.171336838  4.792322928
 C  28.756911532  2.815034047  7.999826545
 C  12.156322632  25.805811947 -0.206444579
 C  5.892682259  17.319269801  1.586508075
 C  1.290873672  27.231270082  7.660419566
 C  29.989713402  13.232335877 -0.455841216
 C  12.919633514  8.841298091  6.715712215
 C  25.072157720 -3.356380372  0.743112533
 C -1.388469935  15.986564679  0.499246084
 C  15.625430269  21.042324557  5.845332492
 C  2.772027895  33.108351800  0.029982287
 C  30.482860206  12.117778555 -1.158264874
 C  13.478242039  9.741381332  5.781054661
 C  23.971481032 -2.879826550  0.005075143
 C -1.987194952  17.052974735 -0.209407119
 C  14.906010256  20.101306751  5.077626305
 C  2.391178285  34.104900007 -0.892056461
 C  31.788490400  11.668884276 -0.959916231
 C  13.206427337  11.102775504  5.842769243
 C  22.908001698 -3.718936725 -0.318088400
 C -3.298036050  17.434605930  0.038723231
 C  15.142903184  18.737388617  5.211624638
 C  3.271800813  35.087156197 -1.316847827
 C  33.514491042  3.152444263  0.331064906
 C  20.014840824  16.638904719  6.046612467
 C  16.143114567 -1.485324149  7.459546750
 C -5.014809162  25.813652705  0.075102934
 C  8.449816237  13.225561092  7.244275220
 C  12.547672677  31.332231187  6.491146614
 C  34.480198927  4.131086817  0.171593090
 C  18.694539903  16.983549719  5.805523220
 C  16.489648283 -2.761764084  7.886908194
 C -5.907176807  24.757502405  0.040669072
 C  9.727345746  12.822570098  6.883665567
 C  12.186403036  32.637416870  6.804507288
 C  25.902695412  14.297080322  7.885590315
 C  13.568441401  4.695511320  7.178902905
 C  28.397284042 -0.750703172  0.969380228
 C  2.545607952  14.466316949  0.096820498
 C  15.057419292  25.175698389  6.386569923
 C -0.218436523  30.195153912  0.509802454
 C  24.634567019  14.794314109  7.599312639
 C  13.752107177  3.337963051  7.408943810
 C  29.527432084  0.057738713  1.043344863
 C  3.831429096  13.950745753 -0.004483746
 C  14.852848151  26.512685116  6.706558780
 C -1.254133283  29.273574812  0.597102343
 C  23.517347419  14.072192912  8.110497636
 C  14.859729176  2.703923350  6.769548912
 C  29.477539263  1.175247834  1.927380883
 C  4.808262526  14.725116544 -0.682577433
 C  13.660945481  27.128192948  6.245500416
 C -1.017061494  28.087844143  1.355445137
 C  26.317683770  13.408333434 -0.801220340
 C  14.409399668  5.469207950  6.354743058
 C  27.223009457 -0.510615030  1.704054641
 C  2.178550596  15.707897868 -0.457349886
 C  14.148694081  24.428945176  5.612823596
 C  1.035882149  30.025064098  1.128022024
 C  27.683672742  12.954529070 -0.552026291
 C  14.169655505  6.902941118  6.225509498
 C  26.074796954 -1.397713256  1.522732142
 C  0.820533453  16.209473308 -0.278184682
 C  14.362326594  22.993302143  5.446100761
 C  2.073618432  31.033641120  0.924470311
 C  22.120377608  14.421138076  7.889771035
 C  15.257851410  1.316705755  6.972838708
 C  30.534328397  2.172024269  2.068445705
 C  5.989641096  13.975471214  8.625165381
 C  13.324818103  28.489762919  6.652566943
 C -1.955852916  26.981243454  1.481853613
 C  4.171922180  12.636980134  0.646159673
 C  15.837769311  27.234542267  7.588489024
 C -2.539937201  29.564472018 -0.120893103
 C  24.508524467  16.030446961  6.758289021
 C  12.801489047  2.627146922  8.326688284
 C  30.724191134 -0.300290630  0.211429078
 C -4.805653779  19.587983468  1.374907995
 C  13.913196620  16.300937986  6.549046614
 C  7.113319205  34.274845295  7.385285167
 C  33.320700857  9.456355410  0.413822242
 C  14.537468734  13.610095055  6.718969001
 C  20.053690524 -4.388880128  0.550738130
 C -5.145419862  20.924027420  1.215888232
 C  12.902153074  15.353303847  6.672381959
 C  8.452034490  33.909310384  7.336835878
 C  33.674605903  8.112248479  0.472579349
 C  15.535706122  14.545561214  6.489406794
 C  18.715757857 -4.009405838  0.573816103
 C  34.289112581  10.481276607  0.408931526
 C  13.182333309  13.979801002  6.807957365
 C  9.626715754  34.925964141 -1.413540225
 C  35.010743407  7.705890560  0.631435008
 C  15.266368417  15.926760842  6.450499733
 C  6.902384946  35.688806909 -1.344219635
 C  34.430277399  5.316347881  0.927167930
 C  17.662180345  16.481102664  6.613371256
 C  15.805780520 -3.384315704  8.952519176
 C -5.856644413  23.738018423  1.004663731
 C  10.862427130  13.424785735  7.453656187
 C  11.130871085  32.896304870  7.692171928
 C  32.612972670  12.273285293  0.000384604
 C  12.395714997  11.632309765  6.865673569
 C  22.884869248 -5.049003150  0.131111846
 C -4.060357356  16.795174769  1.036155804
 C  16.083421170  18.255406979  6.142404489
 C  4.589824465  35.122216812 -0.825817444
 C  32.121935459  13.399188826  0.688032115
 C  11.791681996  10.730358911  7.756741591
 C  23.978391212 -5.521944663  0.879460093
 C -3.478125256  15.714949143  1.722017768
 C  16.829956444  19.194398925  6.878465243
 C  4.960770213  34.169287011  0.147725108
 C  30.855487782  13.894832231  0.434239910
 C  12.028988194  9.370020224  7.669398362
 C  25.063027302 -4.703958849  1.150138682
 C -2.183160658  15.310517927  1.445905489
 C  16.620114844  20.551660764  6.713806218
 C  4.076141537  33.188210887  0.569660034
 C  33.406287580  5.454231621  1.884069449
 C  18.001617539  15.633155737  7.682350818
 C  14.946007879 -2.408538324  0.126791206
 C -4.889370237  23.827592795  2.020039262
 C  10.672023388  14.430389914  8.417456294
 C  10.629578306  32.086694109 -1.190524877
 C  32.433764812  4.472075233  2.036122350
 C  19.319867780  15.257549605  7.899573480
 C  14.610809205 -1.133423145 -0.295127938
 C -3.965521658  24.869163224  2.031341415
 C  9.586823387  15.148507235 -0.702844229
 C  10.763052078  30.507738905  7.897818248
 C  32.455342205  3.300661202  1.247759671
 C  20.359923908  15.744878388  7.078506018
 C  15.101444212 -0.768645795  8.092044210
 C -3.995649323  25.878711359  1.045532909
 C  8.254991664  14.273597506  8.167358608
 C  11.835909602  30.240590128  7.026878177
 C  23.941918147  13.185316437 -0.568426150
 C  15.674582874  3.474558156  5.912820811
 C  28.316267372  1.380465773  2.699272519
 C  4.248720055  15.681431827  8.192059402
 C  12.774116014  26.398149543  5.434768949
 C  0.232833568  27.931383833  1.991101203
 C  25.210751962  12.689807754 -0.289015701
 C  15.486495544  4.835212706  5.685723615
 C  27.179089617  0.584210316  2.600593685
 C  2.956584466  16.190864581  8.278701187
 C  12.993324965  25.067690393  5.091802974
 C  1.267827160  28.859153116  1.901056261
 C  2.622031245  17.495205904  7.603259974
 C  12.030236188  24.356381161  4.179041232
 C  2.575464692  28.600727670  2.601228120
 C  25.375983779  11.467858594  0.574538191
 C  16.387629321  5.573203838  4.730661909
 C  25.974748046  0.881556255  3.453865794
 N  14.188991368  28.894025686  1.875714974
 N  7.793470970  14.164287872  3.609717168
 N -2.617969983  27.220237495  5.931661612
 N  15.836024127 -0.046967991  3.002147072
 N  22.423306541  15.434870512  2.631873429
 N  32.365647529  2.478933829  5.731420151
 N  6.929636422  35.366032865  3.389564633
 N  16.931028279  16.315346537  1.675043832
 N -4.488739712  17.352365371  5.820785325
 N  12.436854184  34.063255630  3.264856065
 N  12.885056382  12.312263626  1.988416092
 N -6.127043583  22.809656663  5.673264264
 N  3.500788010  31.292669979  5.275835283
 N  15.058475696  21.587822037  0.902829222
 N  0.777341196  15.701126176  4.616191666
 N  27.365810021 -2.703761948  5.691019421
 N  13.785375180  6.741581880  1.879925851
 N  29.188697482  12.623542773  3.731586456
 N  28.701586164  13.741023118 -0.635853203
 N  13.151043234  7.469294337  6.785490412
 N  26.193548034 -2.578149454  1.021514189
 N -0.089472991  15.514794916  0.322850257
 N  15.451057202  22.425889695  5.847298231
 N  1.811150295  32.141154151  0.310529896
 N  35.387507197  6.337212442  0.684309721
 N  16.317307607  16.871309780  6.354031742
 N  5.526720937  36.062323263 -1.294281555
 N  33.943612949  11.841545219  0.276859472
 N  12.158880987  13.024610051  7.019685026
 N  10.977297938  34.518236930 -1.430736773
 N  31.499786125  2.284211924  1.220310167
 N  21.717145294  15.454620296  7.229209657
 N  14.671961361  0.528044964  7.811070840
 N -3.130639697  26.968345882  0.946432514
 N  6.989241647  14.779443385  8.466971851
 N  12.106811486  28.913300366  6.689930459
